Arquivos Simulação/IEEE_Final/IEEE33_bus_VLN_Node.Txt

LINE-GROUND and LINE-LINE VOLTAGES BY BUS & NODE

Bus       Node    VLN (kV)   Angle      pu     Base kV    Node-Node   VLL (kV)  Angle      pu

SOURCEBUS 1       41.811 /_   -0.1    1.0495    69.000        1-2     72.418 /_   29.9    1.0495
   -      2       41.811 /_ -120.1    1.0495    69.000        2-3     72.418 /_  -90.1    1.0495
   -      3       41.811 /_  119.9    1.0495    69.000        3-1     72.418 /_  149.9    1.0495
10 ...... 1        8.362 /_  -30.1    1.0495    13.800        1-2     14.483 /_   -0.1    1.0495
   -      2        8.362 /_ -150.1    1.0495    13.800        2-3     14.483 /_ -120.1    1.0495
   -      3        8.362 /_   89.9    1.0495    13.800        3-1     14.483 /_  119.9    1.0495
20 ...... 1       8.3481 /_  -30.1    1.0478    13.800        1-2     14.459 /_   -0.1    1.0478
   -      2       8.3481 /_ -150.1    1.0478    13.800        2-3     14.459 /_ -120.1    1.0478
   -      3       8.3481 /_   89.9    1.0478    13.800        3-1     14.459 /_  119.9    1.0478
30 ...... 1       8.2818 /_  -30.4    1.0395    13.800        1-2     14.344 /_   -0.4    1.0395
   -      2       8.2818 /_ -150.4    1.0395    13.800        2-3     14.344 /_ -120.4    1.0395
   -      3       8.2818 /_   89.6    1.0395    13.800        3-1     14.344 /_  119.6    1.0395
40 ...... 1       8.2475 /_  -30.5    1.0352    13.800        1-2     14.285 /_   -0.5    1.0352
   -      2       8.2475 /_ -150.5    1.0352    13.800        2-3     14.285 /_ -120.5    1.0352
   -      3       8.2475 /_   89.5    1.0352    13.800        3-1     14.285 /_  119.5    1.0352
50 ...... 1       8.2132 /_  -30.6    1.0308    13.800        1-2     14.226 /_   -0.6    1.0308
   -      2       8.2132 /_ -150.6    1.0308    13.800        2-3     14.226 /_ -120.6    1.0308
   -      3       8.2132 /_   89.4    1.0308    13.800        3-1     14.226 /_  119.4    1.0308
60 ...... 1       8.1422 /_  -31.0    1.0219    13.800        1-2     14.103 /_   -1.0    1.0219
   -      2       8.1422 /_ -151.0    1.0219    13.800        2-3     14.103 /_ -121.0    1.0219
   -      3       8.1422 /_   89.0    1.0219    13.800        3-1     14.103 /_  119.0    1.0219
70 ...... 1       8.1336 /_  -31.2    1.0209    13.800        1-2     14.088 /_   -1.2    1.0209
   -      2       8.1336 /_ -151.2    1.0209    13.800        2-3     14.088 /_ -121.2    1.0209
   -      3       8.1336 /_   88.8    1.0209    13.800        3-1     14.088 /_  118.8    1.0209
80 ...... 1       8.0634 /_  -31.6    1.0121    13.800        1-2     13.966 /_   -1.6    1.0121
   -      2       8.0634 /_ -151.6    1.0121    13.800        2-3     13.966 /_ -121.6    1.0121
   -      3       8.0634 /_   88.4    1.0121    13.800        3-1     13.966 /_  118.4    1.0121
90 ...... 1       8.0255 /_  -31.8    1.0073    13.800        1-2     13.901 /_   -1.8    1.0073
   -      2       8.0255 /_ -151.8    1.0073    13.800        2-3     13.901 /_ -121.8    1.0073
   -      3       8.0255 /_   88.2    1.0073    13.800        3-1     13.901 /_  118.2    1.0073
100 ..... 1       7.9914 /_  -31.9     1.003    13.800        1-2     13.841 /_   -1.9     1.003
   -      2       7.9914 /_ -151.9     1.003    13.800        2-3     13.841 /_ -121.9     1.003
   -      3       7.9914 /_   88.1     1.003    13.800        3-1     13.841 /_  118.1     1.003
110 ..... 1       7.9857 /_  -32.0    1.0023    13.800        1-2     13.832 /_   -2.0    1.0023
   -      2       7.9857 /_ -152.0    1.0023    13.800        2-3     13.832 /_ -122.0    1.0023
   -      3       7.9857 /_   88.0    1.0023    13.800        3-1     13.832 /_  118.0    1.0023
120 ..... 1       7.9765 /_  -32.0    1.0011    13.800        1-2     13.816 /_   -2.0    1.0011
   -      2       7.9765 /_ -152.0    1.0011    13.800        2-3     13.816 /_ -122.0    1.0011
   -      3       7.9765 /_   88.0    1.0011    13.800        3-1     13.816 /_  118.0    1.0011
130 ..... 1       7.9465 /_  -32.2   0.99738    13.800        1-2     13.764 /_   -2.2   0.99738
   -      2       7.9465 /_ -152.2   0.99738    13.800        2-3     13.764 /_ -122.2   0.99738
   -      3       7.9465 /_   87.8   0.99738    13.800        3-1     13.764 /_  117.8   0.99738
140 ..... 1       7.9377 /_  -32.2   0.99627    13.800        1-2     13.749 /_   -2.2   0.99627
   -      2       7.9377 /_ -152.2   0.99627    13.800        2-3     13.749 /_ -122.2   0.99627
   -      3       7.9377 /_   87.8   0.99627    13.800        3-1     13.749 /_  117.8   0.99627
150 ..... 1         7.93 /_  -32.3    0.9953    13.800        1-2     13.735 /_   -2.3    0.9953
   -      2         7.93 /_ -152.3    0.9953    13.800        2-3     13.735 /_ -122.3    0.9953
   -      3         7.93 /_   87.7    0.9953    13.800        3-1     13.735 /_  117.7    0.9953
160 ..... 1       7.9227 /_  -32.3   0.99439    13.800        1-2     13.723 /_   -2.3   0.99439
   -      2       7.9227 /_ -152.3   0.99439    13.800        2-3     13.723 /_ -122.3   0.99439
   -      3       7.9227 /_   87.7   0.99439    13.800        3-1     13.723 /_  117.7   0.99439
170 ..... 1       7.9143 /_  -32.4   0.99333    13.800        1-2     13.708 /_   -2.4   0.99333
   -      2       7.9143 /_ -152.4   0.99333    13.800        2-3     13.708 /_ -122.4   0.99333
   -      3       7.9143 /_   87.6   0.99333    13.800        3-1     13.708 /_  117.6   0.99333
180 ..... 1       7.9119 /_  -32.4   0.99303    13.800        1-2     13.704 /_   -2.4   0.99303
   -      2       7.9119 /_ -152.4   0.99303    13.800        2-3     13.704 /_ -122.4   0.99303
   -      3       7.9119 /_   87.6   0.99303    13.800        3-1     13.704 /_  117.6   0.99303
190 ..... 1       8.3457 /_  -30.2    1.0475    13.800        1-2     14.455 /_   -0.2    1.0475
   -      2       8.3457 /_ -150.2    1.0475    13.800        2-3     14.455 /_ -120.2    1.0475
   -      3       8.3457 /_   89.8    1.0475    13.800        3-1     14.455 /_  119.8    1.0475
200 ..... 1       8.3296 /_  -30.3    1.0455    13.800        1-2     14.427 /_   -0.3    1.0455
   -      2       8.3296 /_ -150.3    1.0455    13.800        2-3     14.427 /_ -120.3    1.0455
   -      3       8.3296 /_   89.7    1.0455    13.800        3-1     14.427 /_  119.7    1.0455
210 ..... 1       8.3267 /_  -30.3    1.0451    13.800        1-2     14.422 /_   -0.3    1.0451
   -      2       8.3267 /_ -150.3    1.0451    13.800        2-3     14.422 /_ -120.3    1.0451
   -      3       8.3267 /_   89.7    1.0451    13.800        3-1     14.422 /_  119.7    1.0451
220 ..... 1       8.3241 /_  -30.3    1.0448    13.800        1-2     14.418 /_   -0.3    1.0448
   -      2       8.3241 /_ -150.3    1.0448    13.800        2-3     14.418 /_ -120.3    1.0448
   -      3       8.3241 /_   89.7    1.0448    13.800        3-1     14.418 /_  119.7    1.0448
230 ..... 1       8.2648 /_  -30.5    1.0373    13.800        1-2     14.315 /_   -0.5    1.0373
   -      2       8.2648 /_ -150.5    1.0373    13.800        2-3     14.315 /_ -120.5    1.0373
   -      3       8.2648 /_   89.5    1.0373    13.800        3-1     14.315 /_  119.5    1.0373
240 ..... 1       8.2423 /_  -30.6    1.0345    13.800        1-2     14.276 /_   -0.6    1.0345
   -      2       8.2423 /_ -150.6    1.0345    13.800        2-3     14.276 /_ -120.6    1.0345
   -      3       8.2423 /_   89.4    1.0345    13.800        3-1     14.276 /_  119.4    1.0345
250 ..... 1        8.231 /_  -30.6    1.0331    13.800        1-2     14.257 /_   -0.6    1.0331
   -      2        8.231 /_ -150.6    1.0331    13.800        2-3     14.257 /_ -120.6    1.0331
   -      3        8.231 /_   89.4    1.0331    13.800        3-1     14.257 /_  119.4    1.0331
260 ..... 1       8.1345 /_  -31.1     1.021    13.800        1-2     14.089 /_   -1.1     1.021
   -      2       8.1345 /_ -151.1     1.021    13.800        2-3     14.089 /_ -121.1     1.021
   -      3       8.1345 /_   88.9     1.021    13.800        3-1     14.089 /_  118.9     1.021
270 ..... 1        8.125 /_  -31.1    1.0198    13.800        1-2     14.073 /_   -1.1    1.0198
   -      2        8.125 /_ -151.1    1.0198    13.800        2-3     14.073 /_ -121.1    1.0198
   -      3        8.125 /_   88.9    1.0198    13.800        3-1     14.073 /_  118.9    1.0198
280 ..... 1       8.0949 /_  -31.3     1.016    13.800        1-2     14.021 /_   -1.3     1.016
   -      2       8.0949 /_ -151.3     1.016    13.800        2-3     14.021 /_ -121.3     1.016
   -      3       8.0949 /_   88.7     1.016    13.800        3-1     14.021 /_  118.7     1.016
290 ..... 1       8.0758 /_  -31.4    1.0136    13.800        1-2     13.988 /_   -1.4    1.0136
   -      2       8.0758 /_ -151.4    1.0136    13.800        2-3     13.988 /_ -121.4    1.0136
   -      3       8.0758 /_   88.6    1.0136    13.800        3-1     13.988 /_  118.6    1.0136
300 ..... 1       8.0661 /_  -31.4    1.0124    13.800        1-2     13.971 /_   -1.4    1.0124
   -      2       8.0661 /_ -151.4    1.0124    13.800        2-3     13.971 /_ -121.4    1.0124
   -      3       8.0661 /_   88.6    1.0124    13.800        3-1     13.971 /_  118.6    1.0124
310 ..... 1       8.0523 /_  -31.5    1.0106    13.800        1-2     13.947 /_   -1.5    1.0106
   -      2       8.0523 /_ -151.5    1.0106    13.800        2-3     13.947 /_ -121.5    1.0106
   -      3       8.0523 /_   88.5    1.0106    13.800        3-1     13.947 /_  118.5    1.0106
320 ..... 1       8.0493 /_  -31.6    1.0103    13.800        1-2     13.942 /_   -1.6    1.0103
   -      2       8.0493 /_ -151.6    1.0103    13.800        2-3     13.942 /_ -121.6    1.0103
   -      3       8.0493 /_   88.4    1.0103    13.800        3-1     13.942 /_  118.4    1.0103
330 ..... 1       8.0477 /_  -31.6    1.0101    13.800        1-2     13.939 /_   -1.6    1.0101
   -      2       8.0477 /_ -151.6    1.0101    13.800        2-3     13.939 /_ -121.6    1.0101
   -      3       8.0477 /_   88.4    1.0101    13.800        3-1     13.939 /_  118.4    1.0101
